src/tests/data/output/raw_export_result/IEEE 30 bus.raw
,100.0,33,0,0,50     / Created with GridCal
(Wed Aug 27 14:10:33 2025)  HORIZON: 20241205 00H DEM: 25029.8MW
HID:4644MW,TERM:10747MW,EOL:6503MW,FV:0MW,OK
     1, 'Glen Lyn    ', 132.0000, 3,      1,      1,      1,  1.06000,  98.4316,  1.05000,  0.95000,  0.00000,  0.00000
     2, 'Claytor     ', 132.0000, 2,      1,      1,      1,  1.04313,  93.0798,  1.05000,  0.95000,  0.00000,  0.00000
     3, 'Kumis       ', 132.0000, 1,      1,      1,      1,  1.02074,  90.8996,  1.05000,  0.95000,  0.00000,  0.00000
     4, 'Hancock     ', 132.0000, 1,      1,      1,      1,  1.01176,  89.1475,  1.05000,  0.95000,  0.00000,  0.00000
     5, 'Fieldale    ', 132.0000, 2,      1,      1,      1,  1.01000,  84.2658,  1.05000,  0.95000,  0.00000,  0.00000
     6, 'Roanoke     ', 132.0000, 1,      1,      1,      1,  1.01026,  87.3670,  1.05000,  0.95000,  0.00000,  0.00000
     7, 'Blaine      ', 132.0000, 1,      1,      1,      1,  1.00238,  85.5665,  1.05000,  0.95000,  0.00000,  0.00000
     8, 'Reusens     ', 132.0000, 2,      1,      1,      1,  1.01000,  86.6183,  1.05000,  0.95000,  0.00000,  0.00000
     9, 'Roanoke     ',   1.0000, 1,      1,      1,      1,  1.05091,  84.3227,  1.05000,  0.95000,  0.00000,  0.00000
    10, 'Roanoke     ',  33.0000, 1,      1,      1,      1,  1.04513,  82.7320,  1.05000,  0.95000,  0.00000,  0.00000
    11, 'Roanoke     ',  11.0000, 2,      1,      1,      1,  1.08200,  84.3227,  1.05000,  0.95000,  0.00000,  0.00000
    12, 'Hancock     ',  33.0000, 1,      1,      1,      1,  1.05712,  83.4883,  1.05000,  0.95000,  0.00000,  0.00000
    13, 'Hancock     ',  11.0000, 2,      1,      1,      1,  1.07100,  83.4883,  1.05000,  0.95000,  0.00000,  0.00000
    14, 'Bus 14      ',  33.0000, 1,      1,      1,      1,  1.04228,  82.5962,  1.05000,  0.95000,  0.00000,  0.00000
    15, 'Bus 15      ',  33.0000, 1,      1,      1,      1,  1.03768,  82.5042,  1.05000,  0.95000,  0.00000,  0.00000
    16, 'Bus 16      ',  33.0000, 1,      1,      1,      1,  1.04439,  82.9053,  1.05000,  0.95000,  0.00000,  0.00000
    17, 'Bus 17      ',  33.0000, 1,      1,      1,      1,  1.03990,  82.5702,  1.05000,  0.95000,  0.00000,  0.00000
    18, 'Bus 18      ',  33.0000, 1,      1,      1,      1,  1.02815,  81.8899,  1.05000,  0.95000,  0.00000,  0.00000
    19, 'Bus 19      ',  33.0000, 1,      1,      1,      1,  1.02565,  81.7162,  1.05000,  0.95000,  0.00000,  0.00000
    20, 'Bus 20      ',  33.0000, 1,      1,      1,      1,  1.02974,  81.9128,  1.05000,  0.95000,  0.00000,  0.00000
    21, 'Bus 21      ',  33.0000, 1,      1,      1,      1,  1.03273,  82.2893,  1.05000,  0.95000,  0.00000,  0.00000
    22, 'Bus 22      ',  33.0000, 1,      1,      1,      1,  1.03326,  82.3035,  1.05000,  0.95000,  0.00000,  0.00000
    23, 'Bus 23      ',  33.0000, 1,      1,      1,      1,  1.02718,  82.1135,  1.05000,  0.95000,  0.00000,  0.00000
    24, 'Bus 24      ',  33.0000, 1,      1,      1,      1,  1.02158,  81.9370,  1.05000,  0.95000,  0.00000,  0.00000
    25, 'Bus 25      ',  33.0000, 1,      1,      1,      1,  1.01734,  82.3648,  1.05000,  0.95000,  0.00000,  0.00000
    26, 'Bus 26      ',  33.0000, 1,      1,      1,      1,  0.99966,  81.9452,  1.05000,  0.95000,  0.00000,  0.00000
    27, 'Cloverdl    ',  33.0000, 1,      1,      1,      1,  1.02325,  82.8892,  1.05000,  0.95000,  0.00000,  0.00000
    28, 'Cloverdl    ', 132.0000, 1,      1,      1,      1,  1.00682,  86.7432,  1.05000,  0.95000,  0.00000,  0.00000
    29, 'Bus 29      ',  33.0000, 1,      1,      1,      1,  1.00341,  81.6593,  1.05000,  0.95000,  0.00000,  0.00000
    30, 'Bus 30      ',  33.0000, 1,      1,      1,      1,  0.99194,  80.7765,  1.05000,  0.95000,  0.00000,  0.00000
0 / END OF BUS DATA, BEGIN LOAD DATA
     2, '1 ',      1,      0,      0,     21.7,     12.7, 0.00000E+00, 0.00000E+00, 0.00000E+00,       -0,      0, 1.00000E+00, 0.00000E+00
     3, '1 ',      1,      0,      0, 2.40000E+00, 1.20000E+00, 0.00000E+00, 0.00000E+00, 0.00000E+00,       -0,      0, 1.00000E+00, 0.00000E+00
     4, '1 ',      1,      0,      0, 7.60000E+00, 1.60000E+00, 0.00000E+00, 0.00000E+00, 0.00000E+00,       -0,      0, 1.00000E+00, 0.00000E+00
     5, '1 ',      1,      0,      0,     94.2,       19, 0.00000E+00, 0.00000E+00, 0.00000E+00,       -0,      0, 1.00000E+00, 0.00000E+00
     7, '1 ',      1,      0,      0,     22.8,     10.9, 0.00000E+00, 0.00000E+00, 0.00000E+00,       -0,      0, 1.00000E+00, 0.00000E+00
     8, '1 ',      1,      0,      0,       30,       30, 0.00000E+00, 0.00000E+00, 0.00000E+00,       -0,      0, 1.00000E+00, 0.00000E+00
    10, '1 ',      1,      0,      0, 5.80000E+00, 2.00000E+00, 0.00000E+00, 0.00000E+00, 0.00000E+00,       -0,      0, 1.00000E+00, 0.00000E+00
    12, '1 ',      1,      0,      0,     11.2, 7.50000E+00, 0.00000E+00, 0.00000E+00, 0.00000E+00,       -0,      0, 1.00000E+00, 0.00000E+00
    14, '1 ',      1,      0,      0, 6.20000E+00, 1.60000E+00, 0.00000E+00, 0.00000E+00, 0.00000E+00,       -0,      0, 1.00000E+00, 0.00000E+00
    15, '1 ',      1,      0,      0, 8.20000E+00, 2.50000E+00, 0.00000E+00, 0.00000E+00, 0.00000E+00,       -0,      0, 1.00000E+00, 0.00000E+00
    16, '1 ',      1,      0,      0, 3.50000E+00, 1.80000E+00, 0.00000E+00, 0.00000E+00, 0.00000E+00,       -0,      0, 1.00000E+00, 0.00000E+00
    17, '1 ',      1,      0,      0, 9.00000E+00, 5.80000E+00, 0.00000E+00, 0.00000E+00, 0.00000E+00,       -0,      0, 1.00000E+00, 0.00000E+00
    18, '1 ',      1,      0,      0, 3.20000E+00,      0.9, 0.00000E+00, 0.00000E+00, 0.00000E+00,       -0,      0, 1.00000E+00, 0.00000E+00
    19, '1 ',      1,      0,      0, 9.50000E+00, 3.40000E+00, 0.00000E+00, 0.00000E+00, 0.00000E+00,       -0,      0, 1.00000E+00, 0.00000E+00
    20, '1 ',      1,      0,      0, 2.20000E+00,      0.7, 0.00000E+00, 0.00000E+00, 0.00000E+00,       -0,      0, 1.00000E+00, 0.00000E+00
    21, '1 ',      1,      0,      0,     17.5,     11.2, 0.00000E+00, 0.00000E+00, 0.00000E+00,       -0,      0, 1.00000E+00, 0.00000E+00
    23, '1 ',      1,      0,      0, 3.20000E+00, 1.60000E+00, 0.00000E+00, 0.00000E+00, 0.00000E+00,       -0,      0, 1.00000E+00, 0.00000E+00
    24, '1 ',      1,      0,      0, 8.70000E+00, 6.70000E+00, 0.00000E+00, 0.00000E+00, 0.00000E+00,       -0,      0, 1.00000E+00, 0.00000E+00
    26, '1 ',      1,      0,      0, 3.50000E+00, 2.30000E+00, 0.00000E+00, 0.00000E+00, 0.00000E+00,       -0,      0, 1.00000E+00, 0.00000E+00
    29, '1 ',      1,      0,      0, 2.40000E+00,      0.9, 0.00000E+00, 0.00000E+00, 0.00000E+00,       -0,      0, 1.00000E+00, 0.00000E+00
    30, '1 ',      1,      0,      0,     10.6, 1.90000E+00, 0.00000E+00, 0.00000E+00, 0.00000E+00,       -0,      0, 1.00000E+00, 0.00000E+00
0 / END OF LOAD DATA, BEGIN FIXED SHUNT DATA
    10, '2 ',      1, 0.00000E+00,       19
    24, '2 ',      1, 0.00000E+00, 4.30000E+00
0 / END OF FIXED SHUNT DATA, BEGIN GENERATOR DATA
     1, '1 ',   260.95, 0.00000E+00, 0.00000E+00, 0.00000E+00, 1.06000E+00,      0,      100, 0.00000E+00, 0.00000E+00, 0.00000E+00, 0.00000E+00, 0.00000E+00,      1,      100,    10000,   -10000,      1, 1.00000E+00,      0, 1.00000E+00,      0, 1.00000E+00,      0, 1.00000E+00,      0, 1.00000E+00
     2, '2 ',       40, 0.00000E+00,       50,      -40, 1.04500E+00,      0,      100, 0.00000E+00, 0.00000E+00, 0.00000E+00, 0.00000E+00, 0.00000E+00,      1,      100,    10000,   -10000,      1, 1.00000E+00,      0, 1.00000E+00,      0, 1.00000E+00,      0, 1.00000E+00,      0, 1.00000E+00
     5, '2 ', 0.00000E+00, 0.00000E+00,       40,      -40, 1.01000E+00,      0,      100, 0.00000E+00, 0.00000E+00, 0.00000E+00, 0.00000E+00, 0.00000E+00,      1,      100,    10000,   -10000,      1, 1.00000E+00,      0, 1.00000E+00,      0, 1.00000E+00,      0, 1.00000E+00,      0, 1.00000E+00
     8, '2 ', 0.00000E+00, 0.00000E+00,       40,      -10, 1.01000E+00,      0,      100, 0.00000E+00, 0.00000E+00, 0.00000E+00, 0.00000E+00, 0.00000E+00,      1,      100,    10000,   -10000,      1, 1.00000E+00,      0, 1.00000E+00,      0, 1.00000E+00,      0, 1.00000E+00,      0, 1.00000E+00
    11, '1 ', 0.00000E+00, 0.00000E+00,       24,       -6, 1.08200E+00,      0,      100, 0.00000E+00, 0.00000E+00, 0.00000E+00, 0.00000E+00, 0.00000E+00,      1,      100,    10000,   -10000,      1, 1.00000E+00,      0, 1.00000E+00,      0, 1.00000E+00,      0, 1.00000E+00,      0, 1.00000E+00
    13, '1 ', 0.00000E+00, 0.00000E+00,       24,       -6, 1.07100E+00,      0,      100, 0.00000E+00, 0.00000E+00, 0.00000E+00, 0.00000E+00, 0.00000E+00,      1,      100,    10000,   -10000,      1, 1.00000E+00,      0, 1.00000E+00,      0, 1.00000E+00,      0, 1.00000E+00,      0, 1.00000E+00
0 / END OF GENERATOR DATA, BEGIN BRANCH DATA
     1,      2, '1 ',   0.0192,   0.0575,   0.0528,      130,      130,      182, 0.00000E+00, 0.00000E+00, 0.00000E+00, 0.00000E+00,      1,      1, 0.00000E+00,    1, 1.00000E+00,    0, 0.00000E+00,    0, 0.00000E+00,    0, 0.00000E+00
     1,      3, '1 ',   0.0452,   0.1652,   0.0408,      130,      130,      182, 0.00000E+00, 0.00000E+00, 0.00000E+00, 0.00000E+00,      1,      1, 0.00000E+00,    1, 1.00000E+00,    0, 0.00000E+00,    0, 0.00000E+00,    0, 0.00000E+00
     2,      4, '1 ',    0.057,   0.1737,   0.0368,       65,       65,       91, 0.00000E+00, 0.00000E+00, 0.00000E+00, 0.00000E+00,      1,      1, 0.00000E+00,    1, 1.00000E+00,    0, 0.00000E+00,    0, 0.00000E+00,    0, 0.00000E+00
     2,      5, '1 ',   0.0472,   0.1983,   0.0418,      130,      130,      182, 0.00000E+00, 0.00000E+00, 0.00000E+00, 0.00000E+00,      1,      1, 0.00000E+00,    1, 1.00000E+00,    0, 0.00000E+00,    0, 0.00000E+00,    0, 0.00000E+00
     2,      6, '1 ',   0.0581,   0.1763,   0.0374,       65,       65,       91, 0.00000E+00, 0.00000E+00, 0.00000E+00, 0.00000E+00,      1,      1, 0.00000E+00,    1, 1.00000E+00,    0, 0.00000E+00,    0, 0.00000E+00,    0, 0.00000E+00
     3,      4, '1 ',   0.0132,   0.0379, 8.40000E-03,      130,      130,      182, 0.00000E+00, 0.00000E+00, 0.00000E+00, 0.00000E+00,      1,      1, 0.00000E+00,    1, 1.00000E+00,    0, 0.00000E+00,    0, 0.00000E+00,    0, 0.00000E+00
     4,      6, '1 ',   0.0119,   0.0414, 9.00000E-03,       90,       90,      126, 0.00000E+00, 0.00000E+00, 0.00000E+00, 0.00000E+00,      1,      1, 0.00000E+00,    1, 1.00000E+00,    0, 0.00000E+00,    0, 0.00000E+00,    0, 0.00000E+00
     5,      7, '1 ',    0.046,    0.116,   0.0204,       70,       70,       98, 0.00000E+00, 0.00000E+00, 0.00000E+00, 0.00000E+00,      1,      1, 0.00000E+00,    1, 1.00000E+00,    0, 0.00000E+00,    0, 0.00000E+00,    0, 0.00000E+00
     6,      7, '1 ',   0.0267,    0.082,    0.017,      130,      130,      182, 0.00000E+00, 0.00000E+00, 0.00000E+00, 0.00000E+00,      1,      1, 0.00000E+00,    1, 1.00000E+00,    0, 0.00000E+00,    0, 0.00000E+00,    0, 0.00000E+00
     6,      8, '1 ',    0.012,    0.042, 9.00000E-03,       32,       32,     44.8, 0.00000E+00, 0.00000E+00, 0.00000E+00, 0.00000E+00,      1,      1, 0.00000E+00,    1, 1.00000E+00,    0, 0.00000E+00,    0, 0.00000E+00,    0, 0.00000E+00
     6,     28, '1 ',   0.0169,   0.0599,    0.013, 0.00000E+00, 0.00000E+00, 0.00000E+00, 0.00000E+00, 0.00000E+00, 0.00000E+00, 0.00000E+00,      1,      1, 0.00000E+00,    1, 1.00000E+00,    0, 0.00000E+00,    0, 0.00000E+00,    0, 0.00000E+00
     8,     28, '1 ',   0.0636,      0.2,   0.0428, 0.00000E+00, 0.00000E+00, 0.00000E+00, 0.00000E+00, 0.00000E+00, 0.00000E+00, 0.00000E+00,      1,      1, 0.00000E+00,    1, 1.00000E+00,    0, 0.00000E+00,    0, 0.00000E+00,    0, 0.00000E+00
    10,     17, '1 ',   0.0324,   0.0845, 0.00000E+00, 0.00000E+00, 0.00000E+00, 0.00000E+00, 0.00000E+00, 0.00000E+00, 0.00000E+00, 0.00000E+00,      1,      1, 0.00000E+00,    1, 1.00000E+00,    0, 0.00000E+00,    0, 0.00000E+00,    0, 0.00000E+00
    10,     20, '1 ',   0.0936,    0.209, 0.00000E+00,       32,       32,     44.8, 0.00000E+00, 0.00000E+00, 0.00000E+00, 0.00000E+00,      1,      1, 0.00000E+00,    1, 1.00000E+00,    0, 0.00000E+00,    0, 0.00000E+00,    0, 0.00000E+00
    10,     21, '1 ',   0.0348,   0.0749, 0.00000E+00, 0.00000E+00, 0.00000E+00, 0.00000E+00, 0.00000E+00, 0.00000E+00, 0.00000E+00, 0.00000E+00,      1,      1, 0.00000E+00,    1, 1.00000E+00,    0, 0.00000E+00,    0, 0.00000E+00,    0, 0.00000E+00
    10,     22, '1 ',   0.0727,   0.1499, 0.00000E+00, 0.00000E+00, 0.00000E+00, 0.00000E+00, 0.00000E+00, 0.00000E+00, 0.00000E+00, 0.00000E+00,      1,      1, 0.00000E+00,    1, 1.00000E+00,    0, 0.00000E+00,    0, 0.00000E+00,    0, 0.00000E+00
    12,     14, '1 ',   0.1231,   0.2559, 0.00000E+00, 0.00000E+00, 0.00000E+00, 0.00000E+00, 0.00000E+00, 0.00000E+00, 0.00000E+00, 0.00000E+00,      1,      1, 0.00000E+00,    1, 1.00000E+00,    0, 0.00000E+00,    0, 0.00000E+00,    0, 0.00000E+00
    12,     15, '1 ',   0.0662,   0.1304, 0.00000E+00,       32,       32,     44.8, 0.00000E+00, 0.00000E+00, 0.00000E+00, 0.00000E+00,      1,      1, 0.00000E+00,    1, 1.00000E+00,    0, 0.00000E+00,    0, 0.00000E+00,    0, 0.00000E+00
    12,     16, '1 ',   0.0945,   0.1987, 0.00000E+00,       16,       16,     22.4, 0.00000E+00, 0.00000E+00, 0.00000E+00, 0.00000E+00,      1,      1, 0.00000E+00,    1, 1.00000E+00,    0, 0.00000E+00,    0, 0.00000E+00,    0, 0.00000E+00
    14,     15, '1 ',    0.221,   0.1997, 0.00000E+00,       16,       16,     22.4, 0.00000E+00, 0.00000E+00, 0.00000E+00, 0.00000E+00,      1,      1, 0.00000E+00,    1, 1.00000E+00,    0, 0.00000E+00,    0, 0.00000E+00,    0, 0.00000E+00
    15,     18, '1 ',   0.1073,   0.2185, 0.00000E+00,       16,       16,     22.4, 0.00000E+00, 0.00000E+00, 0.00000E+00, 0.00000E+00,      1,      1, 0.00000E+00,    1, 1.00000E+00,    0, 0.00000E+00,    0, 0.00000E+00,    0, 0.00000E+00
    15,     23, '1 ',      0.1,    0.202, 0.00000E+00, 0.00000E+00, 0.00000E+00, 0.00000E+00, 0.00000E+00, 0.00000E+00, 0.00000E+00, 0.00000E+00,      1,      1, 0.00000E+00,    1, 1.00000E+00,    0, 0.00000E+00,    0, 0.00000E+00,    0, 0.00000E+00
    16,     17, '1 ',   0.0524,   0.1923, 0.00000E+00,       16,       16,     22.4, 0.00000E+00, 0.00000E+00, 0.00000E+00, 0.00000E+00,      1,      1, 0.00000E+00,    1, 1.00000E+00,    0, 0.00000E+00,    0, 0.00000E+00,    0, 0.00000E+00
    18,     19, '1 ',   0.0639,   0.1292, 0.00000E+00,       16,       16,     22.4, 0.00000E+00, 0.00000E+00, 0.00000E+00, 0.00000E+00,      1,      1, 0.00000E+00,    1, 1.00000E+00,    0, 0.00000E+00,    0, 0.00000E+00,    0, 0.00000E+00
    19,     20, '1 ',    0.034,    0.068, 0.00000E+00,       16,       16,     22.4, 0.00000E+00, 0.00000E+00, 0.00000E+00, 0.00000E+00,      1,      1, 0.00000E+00,    1, 1.00000E+00,    0, 0.00000E+00,    0, 0.00000E+00,    0, 0.00000E+00
    21,     22, '1 ',   0.0116,   0.0236, 0.00000E+00, 0.00000E+00, 0.00000E+00, 0.00000E+00, 0.00000E+00, 0.00000E+00, 0.00000E+00, 0.00000E+00,      1,      1, 0.00000E+00,    1, 1.00000E+00,    0, 0.00000E+00,    0, 0.00000E+00,    0, 0.00000E+00
    22,     24, '1 ',    0.115,    0.179, 0.00000E+00, 0.00000E+00, 0.00000E+00, 0.00000E+00, 0.00000E+00, 0.00000E+00, 0.00000E+00, 0.00000E+00,      1,      1, 0.00000E+00,    1, 1.00000E+00,    0, 0.00000E+00,    0, 0.00000E+00,    0, 0.00000E+00
    23,     24, '1 ',    0.132,     0.27, 0.00000E+00, 0.00000E+00, 0.00000E+00, 0.00000E+00, 0.00000E+00, 0.00000E+00, 0.00000E+00, 0.00000E+00,      1,      1, 0.00000E+00,    1, 1.00000E+00,    0, 0.00000E+00,    0, 0.00000E+00,    0, 0.00000E+00
    24,     25, '1 ',   0.1885,   0.3292, 0.00000E+00, 0.00000E+00, 0.00000E+00, 0.00000E+00, 0.00000E+00, 0.00000E+00, 0.00000E+00, 0.00000E+00,      1,      1, 0.00000E+00,    1, 1.00000E+00,    0, 0.00000E+00,    0, 0.00000E+00,    0, 0.00000E+00
    25,     26, '1 ',   0.2544,     0.38, 0.00000E+00, 0.00000E+00, 0.00000E+00, 0.00000E+00, 0.00000E+00, 0.00000E+00, 0.00000E+00, 0.00000E+00,      1,      1, 0.00000E+00,    1, 1.00000E+00,    0, 0.00000E+00,    0, 0.00000E+00,    0, 0.00000E+00
    25,     27, '1 ',   0.1093,   0.2087, 0.00000E+00, 0.00000E+00, 0.00000E+00, 0.00000E+00, 0.00000E+00, 0.00000E+00, 0.00000E+00, 0.00000E+00,      1,      1, 0.00000E+00,    1, 1.00000E+00,    0, 0.00000E+00,    0, 0.00000E+00,    0, 0.00000E+00
    27,     29, '1 ',   0.2198,   0.4153, 0.00000E+00, 0.00000E+00, 0.00000E+00, 0.00000E+00, 0.00000E+00, 0.00000E+00, 0.00000E+00, 0.00000E+00,      1,      1, 0.00000E+00,    1, 1.00000E+00,    0, 0.00000E+00,    0, 0.00000E+00,    0, 0.00000E+00
    27,     30, '1 ',   0.3202,   0.6027, 0.00000E+00, 0.00000E+00, 0.00000E+00, 0.00000E+00, 0.00000E+00, 0.00000E+00, 0.00000E+00, 0.00000E+00,      1,      1, 0.00000E+00,    1, 1.00000E+00,    0, 0.00000E+00,    0, 0.00000E+00,    0, 0.00000E+00
    29,     30, '1 ',   0.2399,   0.4533, 0.00000E+00, 0.00000E+00, 0.00000E+00, 0.00000E+00, 0.00000E+00, 0.00000E+00, 0.00000E+00, 0.00000E+00,      1,      1, 0.00000E+00,    1, 1.00000E+00,    0, 0.00000E+00,    0, 0.00000E+00,    0, 0.00000E+00
0 / END OF BRANCH DATA, BEGIN TRANSFORMER DATA
     4,     12,      0, '1 ', 1, 1, 1, 0.00000E+00, 0.00000E+00, 2, '            ', 1,    1,   1.0000,    0,   1.0000,    0,   1.0000,    0,   1.0000, '            '
0.00000E+00, 2.56000E-01,   100.00
 0.93200,  132.000,    0.000,    65.00,    65.00,    91.00,      0,      0,  1.50000,  0.51000,  1.00000,  1.00000,      2,      0,  0.00000,  0.00000,    0.000
 1.00000,   33.000
     6,      9,      0, '1 ', 1, 1, 1, 0.00000E+00, 0.00000E+00, 2, '            ', 1,    1,   1.0000,    0,   1.0000,    0,   1.0000,    0,   1.0000, '            '
0.00000E+00, 2.08000E-01,   100.00
 0.97800,  132.000,    0.000,    65.00,    65.00,    91.00,      0,      0,  1.50000,  0.51000,  1.00000,  1.00000,      2,      0,  0.00000,  0.00000,    0.000
 1.00000,    1.000
     6,     10,      0, '1 ', 1, 1, 1, 0.00000E+00, 0.00000E+00, 2, '            ', 1,    1,   1.0000,    0,   1.0000,    0,   1.0000,    0,   1.0000, '            '
0.00000E+00, 5.56000E-01,   100.00
 0.96900,  132.000,    0.000,    32.00,    32.00,    44.80,      0,      0,  1.50000,  0.51000,  1.00000,  1.00000,      2,      0,  0.00000,  0.00000,    0.000
 1.00000,   33.000
    28,     27,      0, '1 ', 1, 1, 1, 0.00000E+00, 0.00000E+00, 2, '            ', 1,    1,   1.0000,    0,   1.0000,    0,   1.0000,    0,   1.0000, '            '
0.00000E+00, 3.96000E-01,   100.00
 0.96800,  132.000,    0.000,     0.00,     0.00,     0.00,      0,      0,  1.50000,  0.51000,  1.00000,  1.00000,      2,      0,  0.00000,  0.00000,    0.000
 1.00000,   33.000
     9,     10,      0, '1 ', 1, 1, 1,    1e-20, 0.00000E+00, 2, '            ', 1,    1,   1.0000,    0,   1.0000,    0,   1.0000,    0,   1.0000, '            '
0.00000E+00, 1.10000E-01,     0.00
 1.00000,    1.000,    0.000,     0.00,     0.00,     0.00,      0,      0,  1.50000,  0.51000,  1.00000,  1.00000,      5,      0,  0.00000,  0.00000,    0.000
 1.00000,   33.000
     9,     11,      0, '1 ', 1, 1, 1,    1e-20, 0.00000E+00, 2, '            ', 1,    1,   1.0000,    0,   1.0000,    0,   1.0000,    0,   1.0000, '            '
0.00000E+00, 2.08000E-01,     0.00
 1.00000,    1.000,    0.000,    65.00,    65.00,    91.00,      0,      0,  1.50000,  0.51000,  1.00000,  1.00000,      5,      0,  0.00000,  0.00000,    0.000
 1.00000,   11.000
    12,     13,      0, '1 ', 1, 1, 1,    1e-20, 0.00000E+00, 2, '            ', 1,    1,   1.0000,    0,   1.0000,    0,   1.0000,    0,   1.0000, '            '
0.00000E+00, 1.40000E-01,     0.00
 1.00000,   33.000,    0.000,    65.00,    65.00,    91.00,      0,      0,  1.50000,  0.51000,  1.00000,  1.00000,      5,      0,  0.00000,  0.00000,    0.000
 1.00000,   11.000
0 / END OF TRANSFORMER DATA, BEGIN AREA INTERCHANGE DATA
     1,      0, 0.00000E+00, 0.00000E+00, '1           '
0 / END OF AREA INTERCHANGE DATA, BEGIN TWO-TERMINAL DC LINE DATA
0 / END OF TWO-TERMINAL DC LINE DATA, BEGIN VSC DC LINE DATA
0 / END OF VSC DC LINE DATA, BEGIN IMPEDANCE CORRECTION DATA
0 / END OF IMPEDANCE CORRECTION DATA, BEGIN MULTI-TERMINAL DC LINE DATA
0 / END OF MULTI-TERMINAL DC LINE DATA, BEGIN MULTI-SECTION LINE GROUP DATA
0 / END OF MULTI-SECTION LINE GROUP DATA, BEGIN ZONE DATA
     1, 'IEEE 30     '
0 / END OF ZONE DATA, BEGIN INTER-AREA TRANSFER DATA
0 / END OF INTER-AREA TRANSFER DATA, BEGIN OWNER DATA
   1, 'default     '
0 / END OF OWNER DATA, BEGIN FACTS DEVICE DATA
0 / END OF FACTS DEVICE DATA, BEGIN SWITCHED SHUNT DATA
0 / END OF SWITCHED SHUNT DATA, BEGIN GNE DATA
0 / END OF GNE DATA, BEGIN SUBSTATION DATA
0 / END OF SUBSTATION DATA
Q
